/*--------------------------------*- C++ -*----------------------------------*\ 
| =========                 |                                                 |
| \      /  F ield         | OpenFOAM: The Open Source CFD Toolbox           |
|  \    /   O peration     | Version:  v1812                                |
|   \  /    A nd           | Web:      www.OpenFOAM.com                      |
|    \/     M anipulation  |                                                 |
\*---------------------------------------------------------------------------*/
FoamFile
{
version     2.0;
format      ascii;
class      volScalarField;
location   0;
object     qv;
}


// * * * * * * * * * * * * * * * * * * * * * * * * * * * * * * * * * * * * * // 

dimensions	  [0 0 0 0 0 0 0];

internalField	  uniform 0.01827758550643921;

boundaryField
	{
	 "procBoundary.*" 
	 	 { 
	 	 	 type processor;
	 	}
	 west 
 	 	 { 
	 	 	 type unsteadyABLInflowQv;
	 	 	 z0 0.05;
	 	 	 value uniform  0.01827758550643921;
;
	 	 }
	 east 
 	 	 { 
	 	 	 type unsteadyABLInflowQv;
	 	 	 z0 0.05;
	 	 	 value uniform  0.01827758550643921;
;
	 	 }
	 north 
 	 	 { 
	 	 	 type unsteadyABLInflowQv;
	 	 	 z0 0.05;
	 	 	 value uniform  0.01827758550643921;
;
	 	 }
	 south 
 	 	 { 
	 	 	 type unsteadyABLInflowQv;
	 	 	 z0 0.05;
	 	 	 value uniform  0.01827758550643921;
;
	 	 }
	 upper 
 	 	 { 
	 	 	 type unsteadyABLInflowQv;
	 	 	 z0 0.05;
	 	 	 value uniform  0.01827758550643921;
;
	 	 }
	 nonstl 
 	 	 { 
	 	 	 type unsteadyABLInflowQv;
	 	 	 z0 0.05;
	 	 	 value uniform  0.01827758550643921;
;
	 	 }
	 ###STL_NAME### 
 	 	 { 
	 	 	 type ABLLouisWallQv;
	 	 	 z0 0.05;
	 	 	 mavail 0.1;
	 	 	 sensibleHeat uniform 0;
	 	 	 value uniform  0.01827758550643921;
;
	 	 }
	 lower 
 	 	 { 
	 	 	 type ABLLouisWallQv;
	 	 	 z0 0.05;
	 	 	 mavail 0.1;
	 	 	 sensibleHeat uniform 0;
	 	 	 value uniform  0.01827758550643921;
;
	 	 }
	 bufferstl 
 	 	 { 
	 	 	 type ABLLouisWallQv;
	 	 	 z0 0.05;
	 	 	 mavail 0.1;
	 	 	 sensibleHeat uniform 0;
	 	 	 value uniform  0.01827758550643921;
;
	 	 }
	}
