/*--------------------------------*- C++ -*----------------------------------*\ 
| =========                 |                                                 |
| \      /  F ield         | OpenFOAM: The Open Source CFD Toolbox           |
|  \    /   O peration     | Version:  v1812                                |
|   \  /    A nd           | Web:      www.OpenFOAM.com                      |
|    \/     M anipulation  |                                                 |
\*---------------------------------------------------------------------------*/
FoamFile
{
version     2.0;
format      ascii;
class       dictionary;
location   system;
object     fvSolution;
}


// * * * * * * * * * * * * * * * * * * * * * * * * * * * * * * * * * * * * * // 

solvers
{
p_rgh
{
	 solver PBiCGStab;
	 preconditioner DIC;
	 tolerance        1e-12;
	 relTol          0.1;
}

U
{
	 solver PBiCGStab;
	 preconditioner DILU;
	 tolerance        1e-12;
	 relTol          0.001;
}

nut
{
	 solver PBiCGStab;
	 preconditioner DILU;
	 tolerance        1e-12;
	 relTol          0.001;
}

T
{
	 solver PBiCGStab;
	 preconditioner DILU;
	 tolerance        1e-12;
	 relTol          0.001;
}

qv
{
	 solver PBiCGStab;
	 preconditioner DILU;
	 tolerance        1e-12;
	 relTol          0.001;
}

"(alpha.*)Final"
{
	 solver PBiCGStab;
	 preconditioner DILU;
	 tolerance        1e-12;
	 relTol          0.001;
}

"(U.*)Final"
{
	 solver PBiCGStab;
	 preconditioner DILU;
	 tolerance        1e-12;
	 relTol          0.001;
}

Phi
{
	 solver PBiCGStab;
	 preconditioner DIC;
	 tolerance        1e-12;
	 relTol          0.0;
}

lambda
{
	 solver PBiCGStab;
	 preconditioner DIC;
	 tolerance        1e-12;
	 relTol          0.0;
}

p_rghFinal
{
	 solver PBiCGStab;
	 preconditioner DIC;
	 tolerance        1e-12;
	 relTol          0.0;
}

UFinal
{
	 solver PBiCGStab;
	 preconditioner DILU;
	 tolerance        1e-12;
	 relTol          0.0;
}

nutFinal
{
	 solver PBiCGStab;
	 preconditioner DILU;
	 tolerance        1e-12;
	 relTol          0.0;
}

TFinal
{
	 solver PBiCGStab;
	 preconditioner DILU;
	 tolerance        1e-12;
	 relTol          0.0;
}

qvFinal
{
	 solver PBiCGStab;
	 preconditioner DILU;
	 tolerance        1e-12;
	 relTol          0.0;
}

Ii
{
	 solver              GAMG;
	 tolerance           1e-4;
	 relTol              0.1;
	 smoother            symGaussSeidel;
	 maxIter             10;
	 nPostSweeps         1;
}
}

PIMPLE
{
	 momentumPredictor false;
	 turbOnFinalIterOnly false;
	 nOuterCorrectors 108;
	 nCorrectors 1;
	 nNonOrthogonalCorrectors 0;
	 pRefCell 0;
	 pRefValue 0;
residualControl
{
	 p_rgh
{
	 	 tolerance 1e-4;
	 	 relTol 0;
}
}
}
relaxationFactors
{
fields
{
	 p_rgh 0.7;
	 p_rghFinal 1.0;
}
equations
{
	 U 0.3;
	 nut 0.5;
	 T 0.5;
	 qv 0.5;
	 "ILambda.*" 1.0;
"(alpha.*)Final" 0.7;
"(U.*)Final" 0.7;
	 UFinal 1.0;
	 nutFinal 1.0;
	 TFinal 1.0;
	 qvFinal 1.0;
}
}
